feeders/123Bus/ieee123_VLN_Node.Txt

LINE-GROUND and LINE-LINE VOLTAGES BY BUS & NODE

Bus      Node    VLN (kV)   Angle      pu     Base kV    Node-Node   VLL (kV)  Angle      pu

150 .... 1       2.4018 /_    0.0   0.99999     4.160        1-2       4.16 /_   30.0   0.99999
   -     2       2.4018 /_ -120.0   0.99999     4.160        2-3       4.16 /_  -90.0   0.99999
   -     3       2.4018 /_  120.0   0.99999     4.160        3-1       4.16 /_  150.0   0.99999
150R ... 1       2.4918 /_    0.0    1.0375     4.160        1-2     4.3159 /_   30.0    1.0375
   -     2       2.4918 /_ -120.0    1.0375     4.160        2-3      4.316 /_  -90.0    1.0375
   -     3       2.4918 /_  120.0    1.0375     4.160        3-1      4.316 /_  150.0    1.0375
149 .... 1       2.4918 /_    0.0    1.0375     4.160        1-2     4.3159 /_   30.0    1.0375
   -     2       2.4918 /_ -120.0    1.0375     4.160        2-3      4.316 /_  -90.0    1.0375
   -     3       2.4918 /_  120.0    1.0375     4.160        3-1      4.316 /_  150.0    1.0375
1 ...... 1       2.4647 /_   -0.5    1.0262     4.160        1-2     4.2813 /_   29.8    1.0292
   -     2       2.4857 /_ -120.3     1.035     4.160        2-3     4.2948 /_  -90.4    1.0324
   -     3       2.4722 /_  119.7    1.0293     4.160        3-1     4.2802 /_  149.5    1.0289
2 ...... 2       2.4852 /_ -120.3    1.0347     4.160
3 ...... 3       2.4685 /_  119.7    1.0278     4.160
7 ...... 1       2.4444 /_   -0.9    1.0177     4.160        1-2     4.2561 /_   29.6    1.0231
   -     2       2.4814 /_ -120.5    1.0331     4.160        2-3       4.28 /_  -90.6    1.0288
   -     3       2.4596 /_  119.5    1.0241     4.160        3-1     4.2556 /_  149.2     1.023
4 ...... 3       2.4674 /_  119.7    1.0273     4.160
5 ...... 3       2.4656 /_  119.7    1.0266     4.160
6 ...... 3       2.4641 /_  119.6    1.0259     4.160
8 ...... 1       2.4312 /_   -1.2    1.0123     4.160        1-2     4.2396 /_   29.4    1.0191
   -     2       2.4783 /_ -120.6    1.0319     4.160        2-3     4.2701 /_  -90.8    1.0265
   -     3       2.4512 /_  119.4    1.0206     4.160        3-1     4.2394 /_  149.0    1.0191
12 ..... 2       2.4777 /_ -120.6    1.0316     4.160
9 ...... 1       2.4279 /_   -1.2    1.0109     4.160
13 ..... 1       2.4138 /_   -1.5     1.005     4.160        1-2     4.2165 /_   29.3    1.0136
   -     2       2.4731 /_ -120.8    1.0297     4.160        2-3     4.2555 /_  -91.1     1.023
   -     3       2.4386 /_  119.1    1.0153     4.160        3-1     4.2159 /_  148.6    1.0134
9R ..... 1       2.4128 /_   -1.2    1.0046     4.160
14 ..... 1        2.409 /_   -1.2     1.003     4.160
34 ..... 3       2.4363 /_  119.1    1.0144     4.160
18 ..... 1        2.394 /_   -1.8   0.99675     4.160        1-2     4.1885 /_   29.1    1.0069
   -     2       2.4639 /_ -121.0    1.0259     4.160        2-3     4.2305 /_  -91.2    1.0169
   -     3       2.4227 /_  119.1    1.0087     4.160        3-1      4.191 /_  148.4    1.0075
11 ..... 1       2.4075 /_   -1.2    1.0024     4.160
10 ..... 1       2.4082 /_   -1.2    1.0027     4.160
15 ..... 3       2.4355 /_  119.1     1.014     4.160
16 ..... 3       2.4333 /_  119.1    1.0131     4.160
17 ..... 3       2.4344 /_  119.1    1.0136     4.160
19 ..... 1        2.391 /_   -1.9   0.99551     4.160
21 ..... 1       2.3927 /_   -1.9   0.99623     4.160        1-2     4.1866 /_   29.1    1.0064
   -     2        2.464 /_ -121.0    1.0259     4.160        2-3     4.2287 /_  -91.2    1.0165
   -     3       2.4201 /_  119.1    1.0076     4.160        3-1     4.1883 /_  148.4    1.0068
20 ..... 1       2.3891 /_   -1.9   0.99471     4.160
22 ..... 2       2.4608 /_ -121.0    1.0246     4.160
23 ..... 1       2.3918 /_   -1.9   0.99583     4.160        1-2     4.1852 /_   29.1    1.0061
   -     2       2.4648 /_ -121.0    1.0262     4.160        2-3     4.2279 /_  -91.3    1.0163
   -     3       2.4177 /_  119.1    1.0066     4.160        3-1      4.186 /_  148.4    1.0063
24 ..... 3       2.4145 /_  119.0    1.0053     4.160
25 ..... 1       2.3903 /_   -2.0   0.99521     4.160        1-2     4.1836 /_   29.1    1.0057
   -     2       2.4657 /_ -121.0    1.0266     4.160        2-3     4.2272 /_  -91.3    1.0162
   -     3       2.4159 /_  119.1    1.0059     4.160        3-1     4.1841 /_  148.4    1.0058
25R .... 1       2.4052 /_   -2.0    1.0014     4.160
   -     3       2.4008 /_  119.1   0.99958     4.160        3-1      4.184 /_  148.6    1.0058
26 ..... 1       2.4046 /_   -2.0    1.0012     4.160
   -     3       2.3997 /_  119.1   0.99914     4.160        3-1     4.1828 /_  148.6    1.0055
28 ..... 1       2.3895 /_   -2.0   0.99487     4.160        1-2     4.1828 /_   29.1    1.0055
   -     2       2.4662 /_ -121.0    1.0268     4.160        2-3     4.2269 /_  -91.3    1.0161
   -     3       2.4152 /_  119.1    1.0056     4.160        3-1     4.1833 /_  148.4    1.0056
27 ..... 1       2.4039 /_   -2.0    1.0009     4.160
   -     3       2.3997 /_  119.1   0.99912     4.160        3-1     4.1826 /_  148.6    1.0054
31 ..... 3       2.3984 /_  119.1   0.99859     4.160
33 ..... 1       2.4009 /_   -2.0   0.99963     4.160
29 ..... 1       2.3891 /_   -2.0   0.99471     4.160        1-2     4.1823 /_   29.1    1.0054
   -     2       2.4665 /_ -120.9    1.0269     4.160        2-3     4.2266 /_  -91.3     1.016
   -     3       2.4142 /_  119.1    1.0052     4.160        3-1     4.1824 /_  148.4    1.0054
30 ..... 1       2.3896 /_   -2.0   0.99493     4.160        1-2     4.1824 /_   29.1    1.0054
   -     2       2.4664 /_ -120.9    1.0269     4.160        2-3     4.2263 /_  -91.3    1.0159
   -     3       2.4132 /_  119.1    1.0048     4.160        3-1     4.1817 /_  148.4    1.0052
250 .... 1       2.3896 /_   -2.0   0.99493     4.160        1-2     4.1824 /_   29.1    1.0054
   -     2       2.4664 /_ -120.9    1.0269     4.160        2-3     4.2263 /_  -91.3    1.0159
   -     3       2.4132 /_  119.1    1.0048     4.160        3-1     4.1817 /_  148.4    1.0052
32 ..... 3       2.3975 /_  119.0   0.99821     4.160
35 ..... 1        2.388 /_   -1.9   0.99426     4.160        1-2     4.1786 /_   29.0    1.0045
   -     2       2.4584 /_ -121.0    1.0236     4.160        2-3     4.2232 /_  -91.3    1.0152
   -     3       2.4203 /_  119.0    1.0077     4.160        3-1     4.1841 /_  148.3    1.0058
36 ..... 1        2.386 /_   -1.9   0.99343     4.160        1-2     4.1765 /_   29.0     1.004
   -     2       2.4573 /_ -121.1    1.0231     4.160
40 ..... 1       2.3847 /_   -1.9    0.9929     4.160        1-2     4.1738 /_   29.0    1.0033
   -     2       2.4559 /_ -121.1    1.0225     4.160        2-3      4.219 /_  -91.3    1.0142
   -     3        2.418 /_  119.0    1.0067     4.160        3-1     4.1791 /_  148.3    1.0046
37 ..... 1       2.3842 /_   -1.9   0.99269     4.160
38 ..... 2       2.4559 /_ -121.1    1.0225     4.160
39 ..... 2       2.4549 /_ -121.1    1.0221     4.160
41 ..... 3        2.417 /_  119.0    1.0063     4.160
42 ..... 1       2.3813 /_   -2.0   0.99149     4.160        1-2     4.1691 /_   29.0    1.0022
   -     2       2.4534 /_ -121.1    1.0215     4.160        2-3      4.215 /_  -91.3    1.0132
   -     3        2.416 /_  119.0    1.0059     4.160        3-1     4.1744 /_  148.3    1.0035
43 ..... 2       2.4504 /_ -121.1    1.0202     4.160
44 ..... 1        2.379 /_   -2.0   0.99051     4.160        1-2     4.1657 /_   28.9    1.0014
   -     2       2.4518 /_ -121.1    1.0208     4.160        2-3     4.2122 /_  -91.3    1.0125
   -     3       2.4142 /_  119.0    1.0052     4.160        3-1     4.1708 /_  148.2    1.0026
45 ..... 1       2.3778 /_   -2.0   0.99001     4.160
47 ..... 1       2.3768 /_   -2.0   0.98958     4.160        1-2     4.1619 /_   28.9    1.0005
   -     2       2.4495 /_ -121.2    1.0199     4.160        2-3     4.2085 /_  -91.4    1.0117
   -     3        2.412 /_  118.9    1.0043     4.160        3-1     4.1665 /_  148.2    1.0016
46 ..... 1       2.3769 /_   -2.0   0.98964     4.160
48 ..... 1       2.3762 /_   -2.0   0.98934     4.160        1-2     4.1608 /_   28.9    1.0002
   -     2       2.4489 /_ -121.2    1.0196     4.160        2-3     4.2076 /_  -91.4    1.0115
   -     3       2.4115 /_  118.9    1.0041     4.160        3-1     4.1655 /_  148.2    1.0013
49 ..... 1       2.3762 /_   -2.0   0.98934     4.160        1-2     4.1604 /_   28.9    1.0001
   -     2       2.4483 /_ -121.2    1.0194     4.160        2-3     4.2072 /_  -91.4    1.0113
   -     3       2.4113 /_  118.9     1.004     4.160        3-1     4.1651 /_  148.2    1.0012
50 ..... 1       2.3761 /_   -2.0   0.98931     4.160        1-2       4.16 /_   28.9         1
   -     2       2.4484 /_ -121.2    1.0194     4.160        2-3      4.207 /_  -91.4    1.0113
   -     3       2.4106 /_  118.9    1.0037     4.160        3-1     4.1644 /_  148.2     1.001
51 ..... 1       2.3757 /_   -2.0   0.98916     4.160        1-2     4.1598 /_   28.9   0.99994
   -     2       2.4486 /_ -121.2    1.0195     4.160        2-3      4.207 /_  -91.4    1.0113
   -     3       2.4106 /_  118.9    1.0037     4.160        3-1     4.1642 /_  148.2     1.001
151 .... 1       2.3757 /_   -2.0   0.98916     4.160        1-2     4.1598 /_   28.9   0.99994
   -     2       2.4486 /_ -121.2    1.0195     4.160        2-3      4.207 /_  -91.4    1.0113
   -     3       2.4106 /_  118.9    1.0037     4.160        3-1     4.1642 /_  148.2     1.001
52 ..... 1       2.4005 /_   -1.8   0.99948     4.160        1-2     4.1999 /_   29.1    1.0096
   -     2       2.4698 /_ -121.0    1.0283     4.160        2-3     4.2462 /_  -91.3    1.0207
   -     3       2.4311 /_  118.9    1.0122     4.160        3-1     4.2002 /_  148.3    1.0097
53 ..... 1       2.3945 /_   -2.0   0.99697     4.160        1-2     4.1921 /_   29.0    1.0077
   -     2       2.4678 /_ -121.1    1.0275     4.160        2-3     4.2415 /_  -91.4    1.0196
   -     3       2.4274 /_  118.8    1.0107     4.160        3-1     4.1926 /_  148.2    1.0078
54 ..... 1       2.3911 /_   -2.1   0.99555     4.160        1-2     4.1874 /_   28.9    1.0066
   -     2       2.4664 /_ -121.1    1.0269     4.160        2-3     4.2385 /_  -91.5    1.0189
   -     3       2.4252 /_  118.8    1.0097     4.160        3-1     4.1879 /_  148.1    1.0067
55 ..... 1       2.3906 /_   -2.1   0.99537     4.160        1-2      4.187 /_   28.9    1.0065
   -     2       2.4663 /_ -121.2    1.0268     4.160        2-3     4.2383 /_  -91.5    1.0188
   -     3       2.4253 /_  118.8    1.0098     4.160        3-1     4.1878 /_  148.1    1.0067
57 ..... 1       2.3839 /_   -2.3   0.99255     4.160        1-2     4.1741 /_   28.7    1.0034
   -     2       2.4601 /_ -121.3    1.0243     4.160        2-3      4.228 /_  -91.6    1.0163
   -     3       2.4191 /_  118.6    1.0072     4.160        3-1     4.1779 /_  147.9    1.0043
56 ..... 1       2.3906 /_   -2.1   0.99534     4.160        1-2     4.1869 /_   28.9    1.0065
   -     2       2.4659 /_ -121.2    1.0267     4.160        2-3      4.238 /_  -91.5    1.0188
   -     3       2.4255 /_  118.8    1.0099     4.160        3-1     4.1877 /_  148.1    1.0067
58 ..... 2       2.4587 /_ -121.3    1.0237     4.160
60 ..... 1       2.3688 /_   -2.9   0.98627     4.160        1-2     4.1463 /_   28.3   0.99671
   -     2       2.4488 /_ -121.6    1.0196     4.160        2-3     4.2069 /_  -92.0    1.0113
   -     3       2.4051 /_  118.2    1.0014     4.160        3-1     4.1565 /_  147.4   0.99915
59 ..... 2       2.4579 /_ -121.3    1.0234     4.160
61 ..... 1       2.3688 /_   -2.9   0.98627     4.160        1-2     4.1463 /_   28.3   0.99671
   -     2       2.4488 /_ -121.6    1.0196     4.160        2-3     4.2069 /_  -92.0    1.0113
   -     3       2.4051 /_  118.2    1.0014     4.160        3-1     4.1565 /_  147.4   0.99915
62 ..... 1        2.367 /_   -2.9   0.98554     4.160        1-2     4.1421 /_   28.3    0.9957
   -     2       2.4462 /_ -121.6    1.0185     4.160        2-3     4.2012 /_  -92.0    1.0099
   -     3       2.4003 /_  118.2   0.99937     4.160        3-1     4.1505 /_  147.4   0.99771
63 ..... 1       2.3657 /_   -2.8   0.98496     4.160        1-2     4.1392 /_   28.3   0.99501
   -     2       2.4442 /_ -121.6    1.0176     4.160        2-3     4.1978 /_  -92.0    1.0091
   -     3       2.3979 /_  118.2   0.99839     4.160        3-1     4.1469 /_  147.5   0.99684
64 ..... 1        2.365 /_   -2.8   0.98467     4.160        1-2     4.1345 /_   28.3   0.99387
   -     2       2.4398 /_ -121.6    1.0158     4.160        2-3     4.1909 /_  -92.0    1.0074
   -     3       2.3928 /_  118.2   0.99628     4.160        3-1     4.1409 /_  147.5   0.99541
65 ..... 1       2.3634 /_   -2.8   0.98401     4.160        1-2     4.1315 /_   28.4   0.99315
   -     2       2.4391 /_ -121.5    1.0155     4.160        2-3     4.1851 /_  -92.0     1.006
   -     3       2.3859 /_  118.2   0.99338     4.160        3-1     4.1337 /_  147.5   0.99367
66 ..... 1       2.3639 /_   -2.9   0.98422     4.160        1-2     4.1314 /_   28.4   0.99313
   -     2       2.4397 /_ -121.5    1.0158     4.160        2-3      4.183 /_  -92.0    1.0055
   -     3       2.3824 /_  118.2   0.99193     4.160        3-1     4.1316 /_  147.5   0.99318
67 ..... 1       2.4975 /_   -3.1    1.0399     4.160        1-2     4.3063 /_   27.6    1.0352
   -     2       2.5077 /_ -121.8    1.0441     4.160        2-3     4.3311 /_  -92.0    1.0411
   -     3       2.4903 /_  118.1    1.0369     4.160        3-1     4.3447 /_  147.6    1.0444
68 ..... 1       2.4941 /_   -3.1    1.0384     4.160
72 ..... 1       2.4981 /_   -3.2    1.0401     4.160        1-2      4.305 /_   27.5    1.0349
   -     2       2.5057 /_ -121.9    1.0433     4.160        2-3      4.329 /_  -92.0    1.0406
   -     3       2.4895 /_  118.0    1.0365     4.160        3-1     4.3441 /_  147.5    1.0443
97 ..... 1       2.4953 /_   -3.1    1.0389     4.160        1-2     4.3029 /_   27.6    1.0343
   -     2       2.5066 /_ -121.8    1.0437     4.160        2-3     4.3287 /_  -92.0    1.0406
   -     3       2.4887 /_  118.1    1.0362     4.160        3-1      4.342 /_  147.5    1.0437
69 ..... 1       2.4901 /_   -3.1    1.0368     4.160
70 ..... 1       2.4873 /_   -3.1    1.0356     4.160
71 ..... 1       2.4858 /_   -3.1     1.035     4.160
73 ..... 3       2.4847 /_  118.0    1.0345     4.160
76 ..... 1       2.4977 /_   -3.2    1.0399     4.160        1-2     4.3042 /_   27.5    1.0347
   -     2       2.5045 /_ -122.0    1.0428     4.160        2-3     4.3281 /_  -92.1    1.0404
   -     3       2.4906 /_  117.9     1.037     4.160        3-1      4.345 /_  147.4    1.0445
74 ..... 3       2.4805 /_  117.9    1.0328     4.160
75 ..... 3       2.4782 /_  117.9    1.0318     4.160
77 ..... 1       2.4999 /_   -3.3    1.0408     4.160        1-2     4.3083 /_   27.4    1.0356
   -     2       2.5067 /_ -122.0    1.0437     4.160        2-3     4.3315 /_  -92.2    1.0412
   -     3       2.4923 /_  117.9    1.0377     4.160        3-1     4.3481 /_  147.4    1.0452
86 ..... 1       2.4957 /_   -3.2    1.0391     4.160        1-2     4.3016 /_   27.4     1.034
   -     2       2.5006 /_ -122.1    1.0411     4.160        2-3     4.3249 /_  -92.1    1.0396
   -     3       2.4934 /_  117.9    1.0382     4.160        3-1     4.3456 /_  147.4    1.0446
78 ..... 1       2.5005 /_   -3.3    1.0411     4.160        1-2     4.3094 /_   27.4    1.0359
   -     2       2.5075 /_ -122.0     1.044     4.160        2-3     4.3325 /_  -92.2    1.0415
   -     3       2.4926 /_  117.9    1.0378     4.160        3-1     4.3489 /_  147.3    1.0454
79 ..... 1       2.4998 /_   -3.3    1.0408     4.160        1-2     4.3089 /_   27.4    1.0358
   -     2       2.5078 /_ -122.0    1.0441     4.160        2-3     4.3324 /_  -92.2    1.0415
   -     3       2.4925 /_  117.9    1.0378     4.160        3-1     4.3486 /_  147.3    1.0453
80 ..... 1       2.5046 /_   -3.3    1.0428     4.160        1-2     4.3158 /_   27.3    1.0375
   -     2       2.5109 /_ -122.1    1.0454     4.160        2-3     4.3376 /_  -92.3    1.0427
   -     3       2.4942 /_  117.8    1.0385     4.160        3-1      4.353 /_  147.3    1.0464
81 ..... 1       2.5061 /_   -3.4    1.0435     4.160        1-2     4.3184 /_   27.3    1.0381
   -     2       2.5126 /_ -122.1    1.0461     4.160        2-3     4.3399 /_  -92.3    1.0432
   -     3       2.4945 /_  117.7    1.0386     4.160        3-1     4.3546 /_  147.3    1.0468
82 ..... 1       2.5078 /_   -3.4    1.0442     4.160        1-2     4.3219 /_   27.3    1.0389
   -     2       2.5151 /_ -122.1    1.0472     4.160        2-3     4.3434 /_  -92.3    1.0441
   -     3       2.4961 /_  117.7    1.0393     4.160        3-1     4.3574 /_  147.2    1.0475
84 ..... 3       2.4887 /_  117.7    1.0362     4.160
83 ..... 1       2.5102 /_   -3.4    1.0451     4.160        1-2      4.326 /_   27.2    1.0399
   -     2       2.5174 /_ -122.2    1.0481     4.160        2-3     4.3471 /_  -92.4     1.045
   -     3       2.4977 /_  117.7    1.0399     4.160        3-1     4.3606 /_  147.2    1.0482
85 ..... 3        2.486 /_  117.7    1.0351     4.160
87 ..... 1       2.4946 /_   -3.3    1.0386     4.160        1-2     4.3003 /_   27.3    1.0337
   -     2       2.4988 /_ -122.2    1.0404     4.160        2-3      4.323 /_  -92.2    1.0392
   -     3       2.4945 /_  117.9    1.0386     4.160        3-1     4.3455 /_  147.3    1.0446
88 ..... 1       2.4944 /_   -3.3    1.0386     4.160
89 ..... 1       2.4937 /_   -3.2    1.0383     4.160        1-2     4.2999 /_   27.3    1.0336
   -     2       2.4981 /_ -122.2    1.0401     4.160        2-3     4.3226 /_  -92.2    1.0391
   -     3       2.4953 /_  117.9    1.0389     4.160        3-1     4.3451 /_  147.3    1.0445
90 ..... 2       2.4978 /_ -122.2      1.04     4.160
91 ..... 1       2.4932 /_   -3.2    1.0381     4.160        1-2     4.2993 /_   27.3    1.0335
   -     2       2.4974 /_ -122.2    1.0398     4.160        2-3     4.3224 /_  -92.2     1.039
   -     3       2.4957 /_  117.9    1.0391     4.160        3-1     4.3447 /_  147.3    1.0444
92 ..... 3       2.4953 /_  117.8     1.039     4.160
93 ..... 1       2.4926 /_   -3.3    1.0378     4.160        1-2     4.2986 /_   27.3    1.0333
   -     2       2.4971 /_ -122.2    1.0397     4.160        2-3     4.3218 /_  -92.2    1.0389
   -     3       2.4959 /_  117.9    1.0392     4.160        3-1     4.3445 /_  147.3    1.0443
94 ..... 1        2.491 /_   -3.3    1.0371     4.160
95 ..... 1       2.4925 /_   -3.2    1.0378     4.160        1-2     4.2983 /_   27.3    1.0332
   -     2       2.4963 /_ -122.2    1.0393     4.160        2-3     4.3212 /_  -92.2    1.0388
   -     3       2.4962 /_  117.9    1.0393     4.160        3-1     4.3445 /_  147.3    1.0444
96 ..... 2       2.4957 /_ -122.2    1.0391     4.160
98 ..... 1       2.4949 /_   -3.1    1.0388     4.160        1-2      4.302 /_   27.6    1.0341
   -     2       2.5061 /_ -121.8    1.0434     4.160        2-3     4.3279 /_  -92.0    1.0404
   -     3       2.4882 /_  118.1     1.036     4.160        3-1     4.3412 /_  147.5    1.0436
99 ..... 1       2.4955 /_   -3.1     1.039     4.160        1-2     4.3014 /_   27.6     1.034
   -     2       2.5044 /_ -121.8    1.0427     4.160        2-3     4.3263 /_  -92.0      1.04
   -     3       2.4874 /_  118.0    1.0357     4.160        3-1     4.3401 /_  147.5    1.0433
100 .... 1       2.4959 /_   -3.1    1.0392     4.160        1-2     4.3013 /_   27.6     1.034
   -     2       2.5042 /_ -121.8    1.0427     4.160        2-3      4.326 /_  -92.0    1.0399
   -     3       2.4866 /_  118.0    1.0353     4.160        3-1     4.3395 /_  147.5    1.0431
450 .... 1       2.4959 /_   -3.1    1.0392     4.160        1-2     4.3013 /_   27.6     1.034
   -     2       2.5042 /_ -121.8    1.0427     4.160        2-3      4.326 /_  -92.0    1.0399
   -     3       2.4866 /_  118.0    1.0353     4.160        3-1     4.3395 /_  147.5    1.0431
197 .... 1       2.4953 /_   -3.1    1.0389     4.160        1-2     4.3029 /_   27.6    1.0343
   -     2       2.5066 /_ -121.8    1.0437     4.160        2-3     4.3287 /_  -92.0    1.0406
   -     3       2.4887 /_  118.1    1.0362     4.160        3-1      4.342 /_  147.5    1.0437
101 .... 1       2.4935 /_   -3.2    1.0382     4.160        1-2     4.3003 /_   27.6    1.0337
   -     2       2.5061 /_ -121.8    1.0434     4.160        2-3     4.3271 /_  -92.0    1.0402
   -     3       2.4875 /_  118.1    1.0357     4.160        3-1       4.34 /_  147.5    1.0433
102 .... 3       2.4843 /_  118.1    1.0343     4.160
105 .... 1       2.4907 /_   -3.2     1.037     4.160        1-2     4.2977 /_   27.6    1.0331
   -     2       2.5057 /_ -121.9    1.0433     4.160        2-3     4.3259 /_  -92.0    1.0399
   -     3       2.4881 /_  118.1    1.0359     4.160        3-1     4.3392 /_  147.5    1.0431
103 .... 3       2.4805 /_  118.0    1.0328     4.160
104 .... 3       2.4765 /_  118.0    1.0311     4.160
106 .... 2       2.5031 /_ -121.9    1.0422     4.160
108 .... 1       2.4875 /_   -3.2    1.0357     4.160        1-2     4.2951 /_   27.6    1.0325
   -     2        2.507 /_ -121.9    1.0438     4.160        2-3     4.3258 /_  -92.0    1.0399
   -     3       2.4878 /_  118.1    1.0358     4.160        3-1     4.3381 /_  147.4    1.0428
107 .... 2       2.4999 /_ -121.9    1.0408     4.160
109 .... 1       2.4783 /_   -3.3    1.0318     4.160
300 .... 1       2.4875 /_   -3.2    1.0357     4.160        1-2     4.2951 /_   27.6    1.0325
   -     2        2.507 /_ -121.9    1.0438     4.160        2-3     4.3258 /_  -92.0    1.0399
   -     3       2.4878 /_  118.1    1.0358     4.160        3-1     4.3381 /_  147.4    1.0428
110 .... 1       2.4738 /_   -3.3      1.03     4.160
111 .... 1       2.4721 /_   -3.3    1.0293     4.160
112 .... 1       2.4723 /_   -3.3    1.0294     4.160
113 .... 1       2.4676 /_   -3.4    1.0274     4.160
114 .... 1       2.4667 /_   -3.4     1.027     4.160
135 .... 1        2.394 /_   -1.8   0.99675     4.160        1-2     4.1885 /_   29.1    1.0069
   -     2       2.4639 /_ -121.0    1.0259     4.160        2-3     4.2305 /_  -91.2    1.0169
   -     3       2.4227 /_  119.1    1.0087     4.160        3-1      4.191 /_  148.4    1.0075
152 .... 1       2.4138 /_   -1.5     1.005     4.160        1-2     4.2165 /_   29.3    1.0136
   -     2       2.4731 /_ -120.8    1.0297     4.160        2-3     4.2555 /_  -91.1     1.023
   -     3       2.4386 /_  119.1    1.0153     4.160        3-1     4.2159 /_  148.6    1.0134
160R ... 1        2.502 /_   -2.9    1.0417     4.160        1-2     4.3134 /_   27.8    1.0369
   -     2         2.51 /_ -121.6    1.0451     4.160        2-3     4.3381 /_  -91.8    1.0428
   -     3       2.4953 /_  118.2    1.0389     4.160        3-1      4.351 /_  147.7    1.0459
160 .... 1       2.3688 /_   -2.9   0.98627     4.160        1-2     4.1463 /_   28.3   0.99671
   -     2       2.4488 /_ -121.6    1.0196     4.160        2-3     4.2069 /_  -92.0    1.0113
   -     3       2.4051 /_  118.2    1.0014     4.160        3-1     4.1565 /_  147.4   0.99915
61S .... 1       2.3688 /_   -2.9   0.98627     4.160        1-2     4.1463 /_   28.3   0.99671
   -     2       2.4488 /_ -121.6    1.0196     4.160        2-3     4.2069 /_  -92.0    1.0113
   -     3       2.4051 /_  118.2    1.0014     4.160        3-1     4.1565 /_  147.4   0.99915
300_OPEN 1       2.3757 /_   -2.0   0.98916     4.160        1-2     4.1598 /_   28.9   0.99994
   -     2       2.4486 /_ -121.2    1.0195     4.160        2-3      4.207 /_  -91.4    1.0113
   -     3       2.4106 /_  118.9    1.0037     4.160        3-1     4.1642 /_  148.2     1.001
94_OPEN  1       2.3911 /_   -2.1   0.99555     4.160
610 .... 1      0.27531 /_   -2.2   0.99344     0.480        1-2    0.47842 /_   28.3   0.99671
   -     2      0.27869 /_ -121.6    1.0056     0.480        2-3    0.48541 /_  -92.0    1.0113
   -     3      0.27936 /_  117.5    1.0081     0.480        3-1    0.47959 /_  147.4   0.99915
